Circuit: * C:\Users\leon\repos\tsal\misc\simulation\Draft1.asc

Limiting rise time of source v1 to 0.1
Limiting fall time of source v1 to 0.1
Direct Newton iteration failed to find .op point.  (Use ".option noopiter" to skip.)
Starting Gmin stepping
Gmin = 10
Gmin = 1.07374
Gmin = 0.115292
Gmin = 0.0123794
Gmin = 0.00132923
Gmin = 0.000142725
Gmin = 1.5325e-005
Gmin = 1.6455e-006
Gmin = 1.76685e-007
Gmin = 1.89714e-008
Gmin = 2.03704e-009
Gmin = 2.18725e-010
Gmin = 2.34854e-011
Gmin = 2.52173e-012
Gmin = 2.70769e-013
Gmin = 0
Gmin stepping succeeded in finding the operating point.


Date: Fri Oct 12 23:05:06 2018
Total elapsed time: 0.431 seconds.

tnom = 27
temp = 27
method = modified trap
totiter = 66010
traniter = 65272
tranpoints = 17387
accept = 12622
rejected = 4765
matrix size = 11
fillins = 0
solver = Normal
Matrix Compiler1: 440 bytes object code size  0.1/0.1/[0.1]
Matrix Compiler2:      62 opcodes  0.2/[0.1]/0.2

